sisyphean-power-and-light/network/results/scenarios/baseline_2025/pvsystems.dss
! Scenario PV Systems

New PVSystem.pv_XFMR-000001 bus1=bus_XFMR-000001_sec phases=1 kV=0.24 kVA=158.2 Pmpp=158.2 irradiance=1 pf=1
New PVSystem.pv_XFMR-000003 bus1=bus_XFMR-000003_sec phases=1 kV=0.24 kVA=113.3 Pmpp=113.3 irradiance=1 pf=1
New PVSystem.pv_XFMR-000005 bus1=bus_XFMR-000005_sec phases=1 kV=0.24 kVA=89.0 Pmpp=89.0 irradiance=1 pf=1
New PVSystem.pv_XFMR-000006 bus1=bus_XFMR-000006_sec phases=1 kV=0.24 kVA=1265.6 Pmpp=1265.6 irradiance=1 pf=1
New PVSystem.pv_XFMR-000009 bus1=bus_XFMR-000009_sec phases=1 kV=0.24 kVA=33.0 Pmpp=33.0 irradiance=1 pf=1
New PVSystem.pv_XFMR-000010 bus1=bus_XFMR-000010_sec phases=1 kV=0.24 kVA=127.2 Pmpp=127.2 irradiance=1 pf=1
New PVSystem.pv_XFMR-000012 bus1=bus_XFMR-000012_sec phases=1 kV=0.24 kVA=128.8 Pmpp=128.8 irradiance=1 pf=1
New PVSystem.pv_XFMR-000013 bus1=bus_XFMR-000013_sec phases=1 kV=0.24 kVA=63.0 Pmpp=63.0 irradiance=1 pf=1
New PVSystem.pv_XFMR-000014 bus1=bus_XFMR-000014_sec phases=1 kV=0.24 kVA=1783.4 Pmpp=1783.4 irradiance=1 pf=1
New PVSystem.pv_XFMR-000015 bus1=bus_XFMR-000015_sec phases=1 kV=0.24 kVA=242.1 Pmpp=242.1 irradiance=1 pf=1
New PVSystem.pv_XFMR-000016 bus1=bus_XFMR-000016_sec phases=1 kV=0.24 kVA=148.5 Pmpp=148.5 irradiance=1 pf=1
New PVSystem.pv_XFMR-000017 bus1=bus_XFMR-000017_sec phases=1 kV=0.24 kVA=267.0 Pmpp=267.0 irradiance=1 pf=1
New PVSystem.pv_XFMR-000018 bus1=bus_XFMR-000018_sec phases=1 kV=0.24 kVA=128.2 Pmpp=128.2 irradiance=1 pf=1
New PVSystem.pv_XFMR-000020 bus1=bus_XFMR-000020_sec phases=1 kV=0.24 kVA=64.0 Pmpp=64.0 irradiance=1 pf=1
New PVSystem.pv_XFMR-000021 bus1=bus_XFMR-000021_sec phases=1 kV=0.24 kVA=1313.0 Pmpp=1313.0 irradiance=1 pf=1
New PVSystem.pv_XFMR-000022 bus1=bus_XFMR-000022_sec phases=1 kV=0.24 kVA=91.2 Pmpp=91.2 irradiance=1 pf=1
New PVSystem.pv_XFMR-000025 bus1=bus_XFMR-000025_sec phases=1 kV=0.24 kVA=103.5 Pmpp=103.5 irradiance=1 pf=1
New PVSystem.pv_XFMR-000026 bus1=bus_XFMR-000026_sec phases=1 kV=0.24 kVA=25.6 Pmpp=25.6 irradiance=1 pf=1
New PVSystem.pv_XFMR-000027 bus1=bus_XFMR-000027_sec phases=1 kV=0.24 kVA=168.0 Pmpp=168.0 irradiance=1 pf=1
New PVSystem.pv_XFMR-000029 bus1=bus_XFMR-000029_sec phases=1 kV=0.24 kVA=116.0 Pmpp=116.0 irradiance=1 pf=1
New PVSystem.pv_XFMR-000036 bus1=bus_XFMR-000036_sec phases=1 kV=0.24 kVA=391.2 Pmpp=391.2 irradiance=1 pf=1
New PVSystem.pv_XFMR-000037 bus1=bus_XFMR-000037_sec phases=1 kV=0.24 kVA=145.2 Pmpp=145.2 irradiance=1 pf=1
New PVSystem.pv_XFMR-000038 bus1=bus_XFMR-000038_sec phases=1 kV=0.24 kVA=39.2 Pmpp=39.2 irradiance=1 pf=1
New PVSystem.pv_XFMR-000040 bus1=bus_XFMR-000040_sec phases=1 kV=0.24 kVA=39.6 Pmpp=39.6 irradiance=1 pf=1
New PVSystem.pv_XFMR-000042 bus1=bus_XFMR-000042_sec phases=1 kV=0.24 kVA=41.4 Pmpp=41.4 irradiance=1 pf=1
New PVSystem.pv_XFMR-000043 bus1=bus_XFMR-000043_sec phases=1 kV=0.24 kVA=71.8 Pmpp=71.8 irradiance=1 pf=1
New PVSystem.pv_XFMR-000045 bus1=bus_XFMR-000045_sec phases=1 kV=0.24 kVA=114.8 Pmpp=114.8 irradiance=1 pf=1
New PVSystem.pv_XFMR-000046 bus1=bus_XFMR-000046_sec phases=1 kV=0.24 kVA=94.6 Pmpp=94.6 irradiance=1 pf=1
New PVSystem.pv_XFMR-000048 bus1=bus_XFMR-000048_sec phases=1 kV=0.24 kVA=108.0 Pmpp=108.0 irradiance=1 pf=1
New PVSystem.pv_XFMR-000049 bus1=bus_XFMR-000049_sec phases=1 kV=0.24 kVA=1086.0 Pmpp=1086.0 irradiance=1 pf=1
New PVSystem.pv_XFMR-000053 bus1=bus_XFMR-000053_sec phases=1 kV=0.24 kVA=178.0 Pmpp=178.0 irradiance=1 pf=1
New PVSystem.pv_XFMR-000054 bus1=bus_XFMR-000054_sec phases=1 kV=0.24 kVA=56.0 Pmpp=56.0 irradiance=1 pf=1
New PVSystem.pv_XFMR-000055 bus1=bus_XFMR-000055_sec phases=1 kV=0.24 kVA=70.0 Pmpp=70.0 irradiance=1 pf=1
New PVSystem.pv_XFMR-000057 bus1=bus_XFMR-000057_sec phases=1 kV=0.24 kVA=148.5 Pmpp=148.5 irradiance=1 pf=1
New PVSystem.pv_XFMR-000058 bus1=bus_XFMR-000058_sec phases=1 kV=0.24 kVA=41.6 Pmpp=41.6 irradiance=1 pf=1
New PVSystem.pv_XFMR-000060 bus1=bus_XFMR-000060_sec phases=1 kV=0.24 kVA=113.0 Pmpp=113.0 irradiance=1 pf=1
New PVSystem.pv_XFMR-000061 bus1=bus_XFMR-000061_sec phases=1 kV=0.24 kVA=714.0 Pmpp=714.0 irradiance=1 pf=1
New PVSystem.pv_XFMR-000062 bus1=bus_XFMR-000062_sec phases=1 kV=0.24 kVA=51.0 Pmpp=51.0 irradiance=1 pf=1
New PVSystem.pv_XFMR-000063 bus1=bus_XFMR-000063_sec phases=1 kV=0.24 kVA=60.8 Pmpp=60.8 irradiance=1 pf=1
New PVSystem.pv_XFMR-000064 bus1=bus_XFMR-000064_sec phases=1 kV=0.24 kVA=20.4 Pmpp=20.4 irradiance=1 pf=1
New PVSystem.pv_XFMR-000065 bus1=bus_XFMR-000065_sec phases=1 kV=0.24 kVA=164.2 Pmpp=164.2 irradiance=1 pf=1
New PVSystem.pv_XFMR-000066 bus1=bus_XFMR-000066_sec phases=1 kV=0.24 kVA=54.6 Pmpp=54.6 irradiance=1 pf=1
New PVSystem.pv_XFMR-000067 bus1=bus_XFMR-000067_sec phases=1 kV=0.24 kVA=727.2 Pmpp=727.2 irradiance=1 pf=1
New PVSystem.pv_XFMR-000068 bus1=bus_XFMR-000068_sec phases=1 kV=0.24 kVA=46.2 Pmpp=46.2 irradiance=1 pf=1
New PVSystem.pv_XFMR-000069 bus1=bus_XFMR-000069_sec phases=1 kV=0.24 kVA=32.0 Pmpp=32.0 irradiance=1 pf=1
New PVSystem.pv_XFMR-000075 bus1=bus_XFMR-000075_sec phases=1 kV=0.24 kVA=94.2 Pmpp=94.2 irradiance=1 pf=1
New PVSystem.pv_XFMR-000078 bus1=bus_XFMR-000078_sec phases=1 kV=0.24 kVA=61.6 Pmpp=61.6 irradiance=1 pf=1
New PVSystem.pv_XFMR-000079 bus1=bus_XFMR-000079_sec phases=1 kV=0.24 kVA=4827.3 Pmpp=4827.3 irradiance=1 pf=1
New PVSystem.pv_XFMR-000083 bus1=bus_XFMR-000083_sec phases=1 kV=0.24 kVA=3555.0 Pmpp=3555.0 irradiance=1 pf=1
New PVSystem.pv_XFMR-000084 bus1=bus_XFMR-000084_sec phases=1 kV=0.24 kVA=1690.8 Pmpp=1690.8 irradiance=1 pf=1
New PVSystem.pv_XFMR-000085 bus1=bus_XFMR-000085_sec phases=1 kV=0.24 kVA=84.0 Pmpp=84.0 irradiance=1 pf=1
New PVSystem.pv_XFMR-000087 bus1=bus_XFMR-000087_sec phases=1 kV=0.24 kVA=35.4 Pmpp=35.4 irradiance=1 pf=1
New PVSystem.pv_XFMR-000089 bus1=bus_XFMR-000089_sec phases=1 kV=0.24 kVA=1320.3 Pmpp=1320.3 irradiance=1 pf=1
New PVSystem.pv_XFMR-000090 bus1=bus_XFMR-000090_sec phases=1 kV=0.24 kVA=78.1 Pmpp=78.1 irradiance=1 pf=1
New PVSystem.pv_XFMR-000091 bus1=bus_XFMR-000091_sec phases=1 kV=0.24 kVA=260.7 Pmpp=260.7 irradiance=1 pf=1
New PVSystem.pv_XFMR-000092 bus1=bus_XFMR-000092_sec phases=1 kV=0.24 kVA=64.0 Pmpp=64.0 irradiance=1 pf=1
New PVSystem.pv_XFMR-000095 bus1=bus_XFMR-000095_sec phases=1 kV=0.24 kVA=417.0 Pmpp=417.0 irradiance=1 pf=1
New PVSystem.pv_XFMR-000096 bus1=bus_XFMR-000096_sec phases=1 kV=0.24 kVA=576.7 Pmpp=576.7 irradiance=1 pf=1
New PVSystem.pv_XFMR-000097 bus1=bus_XFMR-000097_sec phases=1 kV=0.24 kVA=174.9 Pmpp=174.9 irradiance=1 pf=1
New PVSystem.pv_XFMR-000099 bus1=bus_XFMR-000099_sec phases=1 kV=0.24 kVA=79.8 Pmpp=79.8 irradiance=1 pf=1
New PVSystem.pv_XFMR-000102 bus1=bus_XFMR-000102_sec phases=1 kV=0.24 kVA=567.0 Pmpp=567.0 irradiance=1 pf=1
New PVSystem.pv_XFMR-000104 bus1=bus_XFMR-000104_sec phases=1 kV=0.24 kVA=153.8 Pmpp=153.8 irradiance=1 pf=1
New PVSystem.pv_XFMR-000106 bus1=bus_XFMR-000106_sec phases=1 kV=0.24 kVA=27.0 Pmpp=27.0 irradiance=1 pf=1
New PVSystem.pv_XFMR-000107 bus1=bus_XFMR-000107_sec phases=1 kV=0.24 kVA=67.0 Pmpp=67.0 irradiance=1 pf=1
New PVSystem.pv_XFMR-000108 bus1=bus_XFMR-000108_sec phases=1 kV=0.24 kVA=79.2 Pmpp=79.2 irradiance=1 pf=1
New PVSystem.pv_XFMR-000109 bus1=bus_XFMR-000109_sec phases=1 kV=0.24 kVA=22.0 Pmpp=22.0 irradiance=1 pf=1
New PVSystem.pv_XFMR-000111 bus1=bus_XFMR-000111_sec phases=1 kV=0.24 kVA=1340.3 Pmpp=1340.3 irradiance=1 pf=1
New PVSystem.pv_XFMR-000112 bus1=bus_XFMR-000112_sec phases=1 kV=0.24 kVA=4773.0 Pmpp=4773.0 irradiance=1 pf=1
New PVSystem.pv_XFMR-000115 bus1=bus_XFMR-000115_sec phases=1 kV=0.24 kVA=224.8 Pmpp=224.8 irradiance=1 pf=1
New PVSystem.pv_XFMR-000116 bus1=bus_XFMR-000116_sec phases=1 kV=0.24 kVA=32.4 Pmpp=32.4 irradiance=1 pf=1
New PVSystem.pv_XFMR-000117 bus1=bus_XFMR-000117_sec phases=1 kV=0.24 kVA=231.6 Pmpp=231.6 irradiance=1 pf=1
New PVSystem.pv_XFMR-000119 bus1=bus_XFMR-000119_sec phases=1 kV=0.24 kVA=41.6 Pmpp=41.6 irradiance=1 pf=1
New PVSystem.pv_XFMR-000120 bus1=bus_XFMR-000120_sec phases=1 kV=0.24 kVA=127.6 Pmpp=127.6 irradiance=1 pf=1
New PVSystem.pv_XFMR-000125 bus1=bus_XFMR-000125_sec phases=1 kV=0.24 kVA=86.0 Pmpp=86.0 irradiance=1 pf=1
New PVSystem.pv_XFMR-000126 bus1=bus_XFMR-000126_sec phases=1 kV=0.24 kVA=79.2 Pmpp=79.2 irradiance=1 pf=1
New PVSystem.pv_XFMR-000128 bus1=bus_XFMR-000128_sec phases=1 kV=0.24 kVA=53.3 Pmpp=53.3 irradiance=1 pf=1
New PVSystem.pv_XFMR-000129 bus1=bus_XFMR-000129_sec phases=1 kV=0.24 kVA=129.5 Pmpp=129.5 irradiance=1 pf=1
New PVSystem.pv_XFMR-000131 bus1=bus_XFMR-000131_sec phases=1 kV=0.24 kVA=711.9 Pmpp=711.9 irradiance=1 pf=1
New PVSystem.pv_XFMR-000132 bus1=bus_XFMR-000132_sec phases=1 kV=0.24 kVA=4566.8 Pmpp=4566.8 irradiance=1 pf=1
New PVSystem.pv_XFMR-000133 bus1=bus_XFMR-000133_sec phases=1 kV=0.24 kVA=1574.5 Pmpp=1574.5 irradiance=1 pf=1
New PVSystem.pv_XFMR-000134 bus1=bus_XFMR-000134_sec phases=1 kV=0.24 kVA=55.0 Pmpp=55.0 irradiance=1 pf=1
New PVSystem.pv_XFMR-000135 bus1=bus_XFMR-000135_sec phases=1 kV=0.24 kVA=36.0 Pmpp=36.0 irradiance=1 pf=1
New PVSystem.pv_XFMR-000137 bus1=bus_XFMR-000137_sec phases=1 kV=0.24 kVA=130.2 Pmpp=130.2 irradiance=1 pf=1
New PVSystem.pv_XFMR-000139 bus1=bus_XFMR-000139_sec phases=1 kV=0.24 kVA=2778.3 Pmpp=2778.3 irradiance=1 pf=1
New PVSystem.pv_XFMR-000140 bus1=bus_XFMR-000140_sec phases=1 kV=0.24 kVA=202.1 Pmpp=202.1 irradiance=1 pf=1
New PVSystem.pv_XFMR-000141 bus1=bus_XFMR-000141_sec phases=1 kV=0.24 kVA=4965.6 Pmpp=4965.6 irradiance=1 pf=1
New PVSystem.pv_XFMR-000142 bus1=bus_XFMR-000142_sec phases=1 kV=0.24 kVA=106.0 Pmpp=106.0 irradiance=1 pf=1
New PVSystem.pv_XFMR-000144 bus1=bus_XFMR-000144_sec phases=1 kV=0.24 kVA=921.6 Pmpp=921.6 irradiance=1 pf=1
New PVSystem.pv_XFMR-000145 bus1=bus_XFMR-000145_sec phases=1 kV=0.24 kVA=213.3 Pmpp=213.3 irradiance=1 pf=1
New PVSystem.pv_XFMR-000148 bus1=bus_XFMR-000148_sec phases=1 kV=0.24 kVA=284.1 Pmpp=284.1 irradiance=1 pf=1
New PVSystem.pv_XFMR-000149 bus1=bus_XFMR-000149_sec phases=1 kV=0.24 kVA=40.8 Pmpp=40.8 irradiance=1 pf=1
New PVSystem.pv_XFMR-000155 bus1=bus_XFMR-000155_sec phases=1 kV=0.24 kVA=103.2 Pmpp=103.2 irradiance=1 pf=1
New PVSystem.pv_XFMR-000156 bus1=bus_XFMR-000156_sec phases=1 kV=0.24 kVA=420.0 Pmpp=420.0 irradiance=1 pf=1
New PVSystem.pv_XFMR-000157 bus1=bus_XFMR-000157_sec phases=1 kV=0.24 kVA=122.2 Pmpp=122.2 irradiance=1 pf=1
New PVSystem.pv_XFMR-000158 bus1=bus_XFMR-000158_sec phases=1 kV=0.24 kVA=2293.2 Pmpp=2293.2 irradiance=1 pf=1
New PVSystem.pv_XFMR-000160 bus1=bus_XFMR-000160_sec phases=1 kV=0.24 kVA=75.4 Pmpp=75.4 irradiance=1 pf=1
New PVSystem.pv_XFMR-000161 bus1=bus_XFMR-000161_sec phases=1 kV=0.24 kVA=53.9 Pmpp=53.9 irradiance=1 pf=1
New PVSystem.pv_XFMR-000164 bus1=bus_XFMR-000164_sec phases=1 kV=0.24 kVA=2588.1 Pmpp=2588.1 irradiance=1 pf=1
New PVSystem.pv_XFMR-000165 bus1=bus_XFMR-000165_sec phases=1 kV=0.24 kVA=68.4 Pmpp=68.4 irradiance=1 pf=1
New PVSystem.pv_XFMR-000166 bus1=bus_XFMR-000166_sec phases=1 kV=0.24 kVA=77.6 Pmpp=77.6 irradiance=1 pf=1
New PVSystem.pv_XFMR-000169 bus1=bus_XFMR-000169_sec phases=1 kV=0.24 kVA=88.0 Pmpp=88.0 irradiance=1 pf=1
New PVSystem.pv_XFMR-000170 bus1=bus_XFMR-000170_sec phases=1 kV=0.24 kVA=60.5 Pmpp=60.5 irradiance=1 pf=1
New PVSystem.pv_XFMR-000171 bus1=bus_XFMR-000171_sec phases=1 kV=0.24 kVA=172.5 Pmpp=172.5 irradiance=1 pf=1
New PVSystem.pv_XFMR-000172 bus1=bus_XFMR-000172_sec phases=1 kV=0.24 kVA=69.6 Pmpp=69.6 irradiance=1 pf=1
New PVSystem.pv_XFMR-000173 bus1=bus_XFMR-000173_sec phases=1 kV=0.24 kVA=1738.6 Pmpp=1738.6 irradiance=1 pf=1
New PVSystem.pv_XFMR-000175 bus1=bus_XFMR-000175_sec phases=1 kV=0.24 kVA=54.6 Pmpp=54.6 irradiance=1 pf=1
New PVSystem.pv_XFMR-000178 bus1=bus_XFMR-000178_sec phases=1 kV=0.24 kVA=212.0 Pmpp=212.0 irradiance=1 pf=1
New PVSystem.pv_XFMR-000179 bus1=bus_XFMR-000179_sec phases=1 kV=0.24 kVA=2111.9 Pmpp=2111.9 irradiance=1 pf=1
New PVSystem.pv_XFMR-000180 bus1=bus_XFMR-000180_sec phases=1 kV=0.24 kVA=4359.8 Pmpp=4359.8 irradiance=1 pf=1
New PVSystem.pv_XFMR-000181 bus1=bus_XFMR-000181_sec phases=1 kV=0.24 kVA=72.6 Pmpp=72.6 irradiance=1 pf=1
New PVSystem.pv_XFMR-000183 bus1=bus_XFMR-000183_sec phases=1 kV=0.24 kVA=1065.0 Pmpp=1065.0 irradiance=1 pf=1
New PVSystem.pv_XFMR-000184 bus1=bus_XFMR-000184_sec phases=1 kV=0.24 kVA=4597.2 Pmpp=4597.2 irradiance=1 pf=1
New PVSystem.pv_XFMR-000185 bus1=bus_XFMR-000185_sec phases=1 kV=0.24 kVA=72.0 Pmpp=72.0 irradiance=1 pf=1
New PVSystem.pv_XFMR-000187 bus1=bus_XFMR-000187_sec phases=1 kV=0.24 kVA=2370.8 Pmpp=2370.8 irradiance=1 pf=1
New PVSystem.pv_XFMR-000188 bus1=bus_XFMR-000188_sec phases=1 kV=0.24 kVA=310.0 Pmpp=310.0 irradiance=1 pf=1
New PVSystem.pv_XFMR-000194 bus1=bus_XFMR-000194_sec phases=1 kV=0.24 kVA=76.5 Pmpp=76.5 irradiance=1 pf=1
New PVSystem.pv_XFMR-000195 bus1=bus_XFMR-000195_sec phases=1 kV=0.24 kVA=73.6 Pmpp=73.6 irradiance=1 pf=1
New PVSystem.pv_XFMR-000196 bus1=bus_XFMR-000196_sec phases=1 kV=0.24 kVA=193.8 Pmpp=193.8 irradiance=1 pf=1
New PVSystem.pv_XFMR-000198 bus1=bus_XFMR-000198_sec phases=1 kV=0.24 kVA=1728.0 Pmpp=1728.0 irradiance=1 pf=1
New PVSystem.pv_XFMR-000199 bus1=bus_XFMR-000199_sec phases=1 kV=0.24 kVA=172.8 Pmpp=172.8 irradiance=1 pf=1
New PVSystem.pv_XFMR-000202 bus1=bus_XFMR-000202_sec phases=1 kV=0.24 kVA=91.8 Pmpp=91.8 irradiance=1 pf=1
New PVSystem.pv_XFMR-000204 bus1=bus_XFMR-000204_sec phases=1 kV=0.24 kVA=217.9 Pmpp=217.9 irradiance=1 pf=1
New PVSystem.pv_XFMR-000206 bus1=bus_XFMR-000206_sec phases=1 kV=0.24 kVA=97.5 Pmpp=97.5 irradiance=1 pf=1
New PVSystem.pv_XFMR-000208 bus1=bus_XFMR-000208_sec phases=1 kV=0.24 kVA=156.5 Pmpp=156.5 irradiance=1 pf=1
New PVSystem.pv_XFMR-000210 bus1=bus_XFMR-000210_sec phases=1 kV=0.24 kVA=79.2 Pmpp=79.2 irradiance=1 pf=1
New PVSystem.pv_XFMR-000212 bus1=bus_XFMR-000212_sec phases=1 kV=0.24 kVA=85.5 Pmpp=85.5 irradiance=1 pf=1
New PVSystem.pv_XFMR-000217 bus1=bus_XFMR-000217_sec phases=1 kV=0.24 kVA=69.3 Pmpp=69.3 irradiance=1 pf=1
New PVSystem.pv_XFMR-000219 bus1=bus_XFMR-000219_sec phases=1 kV=0.24 kVA=76.8 Pmpp=76.8 irradiance=1 pf=1
New PVSystem.pv_XFMR-000221 bus1=bus_XFMR-000221_sec phases=1 kV=0.24 kVA=36.0 Pmpp=36.0 irradiance=1 pf=1
New PVSystem.pv_XFMR-000223 bus1=bus_XFMR-000223_sec phases=1 kV=0.24 kVA=77.5 Pmpp=77.5 irradiance=1 pf=1
New PVSystem.pv_XFMR-000225 bus1=bus_XFMR-000225_sec phases=1 kV=0.24 kVA=171.6 Pmpp=171.6 irradiance=1 pf=1
New PVSystem.pv_XFMR-000228 bus1=bus_XFMR-000228_sec phases=1 kV=0.24 kVA=125.4 Pmpp=125.4 irradiance=1 pf=1
New PVSystem.pv_XFMR-000230 bus1=bus_XFMR-000230_sec phases=1 kV=0.24 kVA=202.3 Pmpp=202.3 irradiance=1 pf=1
New PVSystem.pv_XFMR-000232 bus1=bus_XFMR-000232_sec phases=1 kV=0.24 kVA=59.4 Pmpp=59.4 irradiance=1 pf=1
New PVSystem.pv_XFMR-000238 bus1=bus_XFMR-000238_sec phases=1 kV=0.24 kVA=89.1 Pmpp=89.1 irradiance=1 pf=1
New PVSystem.pv_XFMR-000239 bus1=bus_XFMR-000239_sec phases=1 kV=0.24 kVA=110.5 Pmpp=110.5 irradiance=1 pf=1
New PVSystem.pv_XFMR-000245 bus1=bus_XFMR-000245_sec phases=1 kV=0.24 kVA=18.0 Pmpp=18.0 irradiance=1 pf=1
New PVSystem.pv_XFMR-000247 bus1=bus_XFMR-000247_sec phases=1 kV=0.24 kVA=3125.5 Pmpp=3125.5 irradiance=1 pf=1
New PVSystem.pv_XFMR-000250 bus1=bus_XFMR-000250_sec phases=1 kV=0.24 kVA=48.0 Pmpp=48.0 irradiance=1 pf=1
New PVSystem.pv_XFMR-000252 bus1=bus_XFMR-000252_sec phases=1 kV=0.24 kVA=69.3 Pmpp=69.3 irradiance=1 pf=1
New PVSystem.pv_XFMR-000253 bus1=bus_XFMR-000253_sec phases=1 kV=0.24 kVA=3833.5 Pmpp=3833.5 irradiance=1 pf=1
New PVSystem.pv_XFMR-000255 bus1=bus_XFMR-000255_sec phases=1 kV=0.24 kVA=54.5 Pmpp=54.5 irradiance=1 pf=1
New PVSystem.pv_XFMR-000260 bus1=bus_XFMR-000260_sec phases=1 kV=0.24 kVA=73.6 Pmpp=73.6 irradiance=1 pf=1
New PVSystem.pv_XFMR-000265 bus1=bus_XFMR-000265_sec phases=1 kV=0.24 kVA=99.3 Pmpp=99.3 irradiance=1 pf=1
New PVSystem.pv_XFMR-000266 bus1=bus_XFMR-000266_sec phases=1 kV=0.24 kVA=29.4 Pmpp=29.4 irradiance=1 pf=1
New PVSystem.pv_XFMR-000268 bus1=bus_XFMR-000268_sec phases=1 kV=0.24 kVA=753.3 Pmpp=753.3 irradiance=1 pf=1
New PVSystem.pv_XFMR-000272 bus1=bus_XFMR-000272_sec phases=1 kV=0.24 kVA=82.6 Pmpp=82.6 irradiance=1 pf=1
New PVSystem.pv_XFMR-000273 bus1=bus_XFMR-000273_sec phases=1 kV=0.24 kVA=30.0 Pmpp=30.0 irradiance=1 pf=1
New PVSystem.pv_XFMR-000274 bus1=bus_XFMR-000274_sec phases=1 kV=0.24 kVA=198.0 Pmpp=198.0 irradiance=1 pf=1
New PVSystem.pv_XFMR-000275 bus1=bus_XFMR-000275_sec phases=1 kV=0.24 kVA=200.1 Pmpp=200.1 irradiance=1 pf=1
New PVSystem.pv_XFMR-000277 bus1=bus_XFMR-000277_sec phases=1 kV=0.24 kVA=82.8 Pmpp=82.8 irradiance=1 pf=1
New PVSystem.pv_XFMR-000278 bus1=bus_XFMR-000278_sec phases=1 kV=0.24 kVA=59.8 Pmpp=59.8 irradiance=1 pf=1
New PVSystem.pv_XFMR-000280 bus1=bus_XFMR-000280_sec phases=1 kV=0.24 kVA=208.2 Pmpp=208.2 irradiance=1 pf=1
New PVSystem.pv_XFMR-000282 bus1=bus_XFMR-000282_sec phases=1 kV=0.24 kVA=62.3 Pmpp=62.3 irradiance=1 pf=1
New PVSystem.pv_XFMR-000284 bus1=bus_XFMR-000284_sec phases=1 kV=0.24 kVA=2217.0 Pmpp=2217.0 irradiance=1 pf=1
New PVSystem.pv_XFMR-000287 bus1=bus_XFMR-000287_sec phases=1 kV=0.24 kVA=88.5 Pmpp=88.5 irradiance=1 pf=1
New PVSystem.pv_XFMR-000290 bus1=bus_XFMR-000290_sec phases=1 kV=0.24 kVA=143.0 Pmpp=143.0 irradiance=1 pf=1
New PVSystem.pv_XFMR-000291 bus1=bus_XFMR-000291_sec phases=1 kV=0.24 kVA=47.0 Pmpp=47.0 irradiance=1 pf=1
New PVSystem.pv_XFMR-000292 bus1=bus_XFMR-000292_sec phases=1 kV=0.24 kVA=270.4 Pmpp=270.4 irradiance=1 pf=1
New PVSystem.pv_XFMR-000293 bus1=bus_XFMR-000293_sec phases=1 kV=0.24 kVA=143.0 Pmpp=143.0 irradiance=1 pf=1
New PVSystem.pv_XFMR-000294 bus1=bus_XFMR-000294_sec phases=1 kV=0.24 kVA=166.6 Pmpp=166.6 irradiance=1 pf=1
New PVSystem.pv_XFMR-000297 bus1=bus_XFMR-000297_sec phases=1 kV=0.24 kVA=88.2 Pmpp=88.2 irradiance=1 pf=1
New PVSystem.pv_XFMR-000299 bus1=bus_XFMR-000299_sec phases=1 kV=0.24 kVA=1979.4 Pmpp=1979.4 irradiance=1 pf=1
New PVSystem.pv_XFMR-000304 bus1=bus_XFMR-000304_sec phases=1 kV=0.24 kVA=49.0 Pmpp=49.0 irradiance=1 pf=1
New PVSystem.pv_XFMR-000305 bus1=bus_XFMR-000305_sec phases=1 kV=0.24 kVA=90.0 Pmpp=90.0 irradiance=1 pf=1
New PVSystem.pv_XFMR-000306 bus1=bus_XFMR-000306_sec phases=1 kV=0.24 kVA=127.6 Pmpp=127.6 irradiance=1 pf=1
New PVSystem.pv_XFMR-000309 bus1=bus_XFMR-000309_sec phases=1 kV=0.24 kVA=23.1 Pmpp=23.1 irradiance=1 pf=1
New PVSystem.pv_XFMR-000310 bus1=bus_XFMR-000310_sec phases=1 kV=0.24 kVA=30.8 Pmpp=30.8 irradiance=1 pf=1
New PVSystem.pv_XFMR-000311 bus1=bus_XFMR-000311_sec phases=1 kV=0.24 kVA=2598.2 Pmpp=2598.2 irradiance=1 pf=1
New PVSystem.pv_XFMR-000312 bus1=bus_XFMR-000312_sec phases=1 kV=0.24 kVA=59.0 Pmpp=59.0 irradiance=1 pf=1
New PVSystem.pv_XFMR-000313 bus1=bus_XFMR-000313_sec phases=1 kV=0.24 kVA=56.0 Pmpp=56.0 irradiance=1 pf=1
New PVSystem.pv_XFMR-000315 bus1=bus_XFMR-000315_sec phases=1 kV=0.24 kVA=130.0 Pmpp=130.0 irradiance=1 pf=1
New PVSystem.pv_XFMR-000316 bus1=bus_XFMR-000316_sec phases=1 kV=0.24 kVA=25.2 Pmpp=25.2 irradiance=1 pf=1
New PVSystem.pv_XFMR-000319 bus1=bus_XFMR-000319_sec phases=1 kV=0.24 kVA=77.6 Pmpp=77.6 irradiance=1 pf=1
New PVSystem.pv_XFMR-000320 bus1=bus_XFMR-000320_sec phases=1 kV=0.24 kVA=2771.4 Pmpp=2771.4 irradiance=1 pf=1
New PVSystem.pv_XFMR-000321 bus1=bus_XFMR-000321_sec phases=1 kV=0.24 kVA=125.7 Pmpp=125.7 irradiance=1 pf=1
New PVSystem.pv_XFMR-000323 bus1=bus_XFMR-000323_sec phases=1 kV=0.24 kVA=2807.0 Pmpp=2807.0 irradiance=1 pf=1
New PVSystem.pv_XFMR-000325 bus1=bus_XFMR-000325_sec phases=1 kV=0.24 kVA=197.4 Pmpp=197.4 irradiance=1 pf=1
New PVSystem.pv_XFMR-000326 bus1=bus_XFMR-000326_sec phases=1 kV=0.24 kVA=121.2 Pmpp=121.2 irradiance=1 pf=1
New PVSystem.pv_XFMR-000329 bus1=bus_XFMR-000329_sec phases=1 kV=0.24 kVA=80.6 Pmpp=80.6 irradiance=1 pf=1
New PVSystem.pv_XFMR-000330 bus1=bus_XFMR-000330_sec phases=1 kV=0.24 kVA=127.2 Pmpp=127.2 irradiance=1 pf=1
New PVSystem.pv_XFMR-000331 bus1=bus_XFMR-000331_sec phases=1 kV=0.24 kVA=3168.6 Pmpp=3168.6 irradiance=1 pf=1
New PVSystem.pv_XFMR-000335 bus1=bus_XFMR-000335_sec phases=1 kV=0.24 kVA=141.1 Pmpp=141.1 irradiance=1 pf=1
New PVSystem.pv_XFMR-000336 bus1=bus_XFMR-000336_sec phases=1 kV=0.24 kVA=40.8 Pmpp=40.8 irradiance=1 pf=1
New PVSystem.pv_XFMR-000337 bus1=bus_XFMR-000337_sec phases=1 kV=0.24 kVA=195.8 Pmpp=195.8 irradiance=1 pf=1
New PVSystem.pv_XFMR-000339 bus1=bus_XFMR-000339_sec phases=1 kV=0.24 kVA=136.0 Pmpp=136.0 irradiance=1 pf=1
New PVSystem.pv_XFMR-000341 bus1=bus_XFMR-000341_sec phases=1 kV=0.24 kVA=100.8 Pmpp=100.8 irradiance=1 pf=1
New PVSystem.pv_XFMR-000342 bus1=bus_XFMR-000342_sec phases=1 kV=0.24 kVA=39.6 Pmpp=39.6 irradiance=1 pf=1
New PVSystem.pv_XFMR-000346 bus1=bus_XFMR-000346_sec phases=1 kV=0.24 kVA=48.0 Pmpp=48.0 irradiance=1 pf=1
New PVSystem.pv_XFMR-000349 bus1=bus_XFMR-000349_sec phases=1 kV=0.24 kVA=91.0 Pmpp=91.0 irradiance=1 pf=1
New PVSystem.pv_XFMR-000350 bus1=bus_XFMR-000350_sec phases=1 kV=0.24 kVA=47.4 Pmpp=47.4 irradiance=1 pf=1
New PVSystem.pv_XFMR-000352 bus1=bus_XFMR-000352_sec phases=1 kV=0.24 kVA=1488.0 Pmpp=1488.0 irradiance=1 pf=1
New PVSystem.pv_XFMR-000354 bus1=bus_XFMR-000354_sec phases=1 kV=0.24 kVA=99.6 Pmpp=99.6 irradiance=1 pf=1
New PVSystem.pv_XFMR-000355 bus1=bus_XFMR-000355_sec phases=1 kV=0.24 kVA=92.0 Pmpp=92.0 irradiance=1 pf=1
New PVSystem.pv_XFMR-000356 bus1=bus_XFMR-000356_sec phases=1 kV=0.24 kVA=90.0 Pmpp=90.0 irradiance=1 pf=1
New PVSystem.pv_XFMR-000357 bus1=bus_XFMR-000357_sec phases=1 kV=0.24 kVA=59.0 Pmpp=59.0 irradiance=1 pf=1
New PVSystem.pv_XFMR-000360 bus1=bus_XFMR-000360_sec phases=1 kV=0.24 kVA=35.2 Pmpp=35.2 irradiance=1 pf=1
New PVSystem.pv_XFMR-000362 bus1=bus_XFMR-000362_sec phases=1 kV=0.24 kVA=1472.9 Pmpp=1472.9 irradiance=1 pf=1
New PVSystem.pv_XFMR-000363 bus1=bus_XFMR-000363_sec phases=1 kV=0.24 kVA=64.9 Pmpp=64.9 irradiance=1 pf=1
New PVSystem.pv_XFMR-000365 bus1=bus_XFMR-000365_sec phases=1 kV=0.24 kVA=81.2 Pmpp=81.2 irradiance=1 pf=1
New PVSystem.pv_XFMR-000367 bus1=bus_XFMR-000367_sec phases=1 kV=0.24 kVA=1165.2 Pmpp=1165.2 irradiance=1 pf=1
New PVSystem.pv_XFMR-000370 bus1=bus_XFMR-000370_sec phases=1 kV=0.24 kVA=51.8 Pmpp=51.8 irradiance=1 pf=1
New PVSystem.pv_XFMR-000372 bus1=bus_XFMR-000372_sec phases=1 kV=0.24 kVA=268.8 Pmpp=268.8 irradiance=1 pf=1
New PVSystem.pv_XFMR-000373 bus1=bus_XFMR-000373_sec phases=1 kV=0.24 kVA=167.6 Pmpp=167.6 irradiance=1 pf=1
New PVSystem.pv_XFMR-000378 bus1=bus_XFMR-000378_sec phases=1 kV=0.24 kVA=238.8 Pmpp=238.8 irradiance=1 pf=1
New PVSystem.pv_XFMR-000380 bus1=bus_XFMR-000380_sec phases=1 kV=0.24 kVA=53.0 Pmpp=53.0 irradiance=1 pf=1
New PVSystem.pv_XFMR-000382 bus1=bus_XFMR-000382_sec phases=1 kV=0.24 kVA=32.8 Pmpp=32.8 irradiance=1 pf=1
New PVSystem.pv_XFMR-000383 bus1=bus_XFMR-000383_sec phases=1 kV=0.24 kVA=31.0 Pmpp=31.0 irradiance=1 pf=1
New PVSystem.pv_XFMR-000385 bus1=bus_XFMR-000385_sec phases=1 kV=0.24 kVA=27.6 Pmpp=27.6 irradiance=1 pf=1
New PVSystem.pv_XFMR-000388 bus1=bus_XFMR-000388_sec phases=1 kV=0.24 kVA=3077.9 Pmpp=3077.9 irradiance=1 pf=1
New PVSystem.pv_XFMR-000391 bus1=bus_XFMR-000391_sec phases=1 kV=0.24 kVA=804.0 Pmpp=804.0 irradiance=1 pf=1
New PVSystem.pv_XFMR-000392 bus1=bus_XFMR-000392_sec phases=1 kV=0.24 kVA=136.0 Pmpp=136.0 irradiance=1 pf=1
New PVSystem.pv_XFMR-000393 bus1=bus_XFMR-000393_sec phases=1 kV=0.24 kVA=172.2 Pmpp=172.2 irradiance=1 pf=1
New PVSystem.pv_XFMR-000402 bus1=bus_XFMR-000402_sec phases=1 kV=0.24 kVA=1067.8 Pmpp=1067.8 irradiance=1 pf=1
New PVSystem.pv_XFMR-000404 bus1=bus_XFMR-000404_sec phases=1 kV=0.24 kVA=3631.0 Pmpp=3631.0 irradiance=1 pf=1
New PVSystem.pv_XFMR-000405 bus1=bus_XFMR-000405_sec phases=1 kV=0.24 kVA=190.7 Pmpp=190.7 irradiance=1 pf=1
New PVSystem.pv_XFMR-000406 bus1=bus_XFMR-000406_sec phases=1 kV=0.24 kVA=126.0 Pmpp=126.0 irradiance=1 pf=1
New PVSystem.pv_XFMR-000411 bus1=bus_XFMR-000411_sec phases=1 kV=0.24 kVA=92.0 Pmpp=92.0 irradiance=1 pf=1
New PVSystem.pv_XFMR-000412 bus1=bus_XFMR-000412_sec phases=1 kV=0.24 kVA=197.1 Pmpp=197.1 irradiance=1 pf=1
New PVSystem.pv_XFMR-000414 bus1=bus_XFMR-000414_sec phases=1 kV=0.24 kVA=61.6 Pmpp=61.6 irradiance=1 pf=1
New PVSystem.pv_XFMR-000415 bus1=bus_XFMR-000415_sec phases=1 kV=0.24 kVA=156.0 Pmpp=156.0 irradiance=1 pf=1
New PVSystem.pv_XFMR-000419 bus1=bus_XFMR-000419_sec phases=1 kV=0.24 kVA=322.6 Pmpp=322.6 irradiance=1 pf=1
New PVSystem.pv_XFMR-000421 bus1=bus_XFMR-000421_sec phases=1 kV=0.24 kVA=50.7 Pmpp=50.7 irradiance=1 pf=1
New PVSystem.pv_XFMR-000422 bus1=bus_XFMR-000422_sec phases=1 kV=0.24 kVA=83.4 Pmpp=83.4 irradiance=1 pf=1
New PVSystem.pv_XFMR-000423 bus1=bus_XFMR-000423_sec phases=1 kV=0.24 kVA=177.3 Pmpp=177.3 irradiance=1 pf=1
New PVSystem.pv_XFMR-000428 bus1=bus_XFMR-000428_sec phases=1 kV=0.24 kVA=115.2 Pmpp=115.2 irradiance=1 pf=1
New PVSystem.pv_XFMR-000429 bus1=bus_XFMR-000429_sec phases=1 kV=0.24 kVA=60.5 Pmpp=60.5 irradiance=1 pf=1
New PVSystem.pv_XFMR-000431 bus1=bus_XFMR-000431_sec phases=1 kV=0.24 kVA=176.7 Pmpp=176.7 irradiance=1 pf=1
New PVSystem.pv_XFMR-000434 bus1=bus_XFMR-000434_sec phases=1 kV=0.24 kVA=127.2 Pmpp=127.2 irradiance=1 pf=1
New PVSystem.pv_XFMR-000436 bus1=bus_XFMR-000436_sec phases=1 kV=0.24 kVA=103.2 Pmpp=103.2 irradiance=1 pf=1
New PVSystem.pv_XFMR-000437 bus1=bus_XFMR-000437_sec phases=1 kV=0.24 kVA=2227.5 Pmpp=2227.5 irradiance=1 pf=1
New PVSystem.pv_XFMR-000438 bus1=bus_XFMR-000438_sec phases=1 kV=0.24 kVA=196.0 Pmpp=196.0 irradiance=1 pf=1
New PVSystem.pv_XFMR-000439 bus1=bus_XFMR-000439_sec phases=1 kV=0.24 kVA=102.3 Pmpp=102.3 irradiance=1 pf=1
New PVSystem.pv_XFMR-000441 bus1=bus_XFMR-000441_sec phases=1 kV=0.24 kVA=87.1 Pmpp=87.1 irradiance=1 pf=1
New PVSystem.pv_XFMR-000443 bus1=bus_XFMR-000443_sec phases=1 kV=0.24 kVA=148.2 Pmpp=148.2 irradiance=1 pf=1
New PVSystem.pv_XFMR-000445 bus1=bus_XFMR-000445_sec phases=1 kV=0.24 kVA=554.9 Pmpp=554.9 irradiance=1 pf=1
New PVSystem.pv_XFMR-000446 bus1=bus_XFMR-000446_sec phases=1 kV=0.24 kVA=50.6 Pmpp=50.6 irradiance=1 pf=1
New PVSystem.pv_XFMR-000447 bus1=bus_XFMR-000447_sec phases=1 kV=0.24 kVA=101.0 Pmpp=101.0 irradiance=1 pf=1
New PVSystem.pv_XFMR-000448 bus1=bus_XFMR-000448_sec phases=1 kV=0.24 kVA=941.4 Pmpp=941.4 irradiance=1 pf=1
New PVSystem.pv_XFMR-000450 bus1=bus_XFMR-000450_sec phases=1 kV=0.24 kVA=396.9 Pmpp=396.9 irradiance=1 pf=1
New PVSystem.pv_XFMR-000452 bus1=bus_XFMR-000452_sec phases=1 kV=0.24 kVA=209.4 Pmpp=209.4 irradiance=1 pf=1
New PVSystem.pv_XFMR-000453 bus1=bus_XFMR-000453_sec phases=1 kV=0.24 kVA=85.0 Pmpp=85.0 irradiance=1 pf=1
New PVSystem.pv_XFMR-000456 bus1=bus_XFMR-000456_sec phases=1 kV=0.24 kVA=126.0 Pmpp=126.0 irradiance=1 pf=1
New PVSystem.pv_XFMR-000458 bus1=bus_XFMR-000458_sec phases=1 kV=0.24 kVA=1019.2 Pmpp=1019.2 irradiance=1 pf=1
New PVSystem.pv_XFMR-000460 bus1=bus_XFMR-000460_sec phases=1 kV=0.24 kVA=4813.5 Pmpp=4813.5 irradiance=1 pf=1
New PVSystem.pv_XFMR-000465 bus1=bus_XFMR-000465_sec phases=1 kV=0.24 kVA=28.0 Pmpp=28.0 irradiance=1 pf=1
New PVSystem.pv_XFMR-000466 bus1=bus_XFMR-000466_sec phases=1 kV=0.24 kVA=5746.0 Pmpp=5746.0 irradiance=1 pf=1
New PVSystem.pv_XFMR-000468 bus1=bus_XFMR-000468_sec phases=1 kV=0.24 kVA=99.0 Pmpp=99.0 irradiance=1 pf=1
New PVSystem.pv_XFMR-000469 bus1=bus_XFMR-000469_sec phases=1 kV=0.24 kVA=72.0 Pmpp=72.0 irradiance=1 pf=1
New PVSystem.pv_XFMR-000471 bus1=bus_XFMR-000471_sec phases=1 kV=0.24 kVA=147.7 Pmpp=147.7 irradiance=1 pf=1
New PVSystem.pv_XFMR-000472 bus1=bus_XFMR-000472_sec phases=1 kV=0.24 kVA=121.8 Pmpp=121.8 irradiance=1 pf=1
New PVSystem.pv_XFMR-000473 bus1=bus_XFMR-000473_sec phases=1 kV=0.24 kVA=179.9 Pmpp=179.9 irradiance=1 pf=1
New PVSystem.pv_XFMR-000474 bus1=bus_XFMR-000474_sec phases=1 kV=0.24 kVA=4878.6 Pmpp=4878.6 irradiance=1 pf=1
New PVSystem.pv_XFMR-000475 bus1=bus_XFMR-000475_sec phases=1 kV=0.24 kVA=190.4 Pmpp=190.4 irradiance=1 pf=1
New PVSystem.pv_XFMR-000479 bus1=bus_XFMR-000479_sec phases=1 kV=0.24 kVA=3356.3 Pmpp=3356.3 irradiance=1 pf=1
New PVSystem.pv_XFMR-000480 bus1=bus_XFMR-000480_sec phases=1 kV=0.24 kVA=185.5 Pmpp=185.5 irradiance=1 pf=1
New PVSystem.pv_XFMR-000481 bus1=bus_XFMR-000481_sec phases=1 kV=0.24 kVA=140.2 Pmpp=140.2 irradiance=1 pf=1
New PVSystem.pv_XFMR-000482 bus1=bus_XFMR-000482_sec phases=1 kV=0.24 kVA=1163.0 Pmpp=1163.0 irradiance=1 pf=1
New PVSystem.pv_XFMR-000484 bus1=bus_XFMR-000484_sec phases=1 kV=0.24 kVA=2956.2 Pmpp=2956.2 irradiance=1 pf=1
New PVSystem.pv_XFMR-000485 bus1=bus_XFMR-000485_sec phases=1 kV=0.24 kVA=132.6 Pmpp=132.6 irradiance=1 pf=1
New PVSystem.pv_XFMR-000486 bus1=bus_XFMR-000486_sec phases=1 kV=0.24 kVA=108.4 Pmpp=108.4 irradiance=1 pf=1
New PVSystem.pv_XFMR-000488 bus1=bus_XFMR-000488_sec phases=1 kV=0.24 kVA=103.5 Pmpp=103.5 irradiance=1 pf=1
New PVSystem.pv_XFMR-000489 bus1=bus_XFMR-000489_sec phases=1 kV=0.24 kVA=75.9 Pmpp=75.9 irradiance=1 pf=1
New PVSystem.pv_XFMR-000490 bus1=bus_XFMR-000490_sec phases=1 kV=0.24 kVA=32.4 Pmpp=32.4 irradiance=1 pf=1
